Circuit: * C:\Users\mitch\projects\Death-Clock\clock_pcb\sim\LDR.asc

Limiting fall time of source v1 to 0.09997
WARNING: Less than two connections to node 5V.  This node is used by V2.
Direct Newton iteration for .op point succeeded.

Date: Sun Aug 14 23:12:37 2022
Total elapsed time: 0.049 seconds.

tnom = 27
temp = 27
method = modified trap
totiter = 2119
traniter = 2116
tranpoints = 1059
accept = 1056
rejected = 3
matrix size = 6
fillins = 0
solver = Normal
Matrix Compiler1: 128 bytes object code size  0.0/0.0/[0.0]
Matrix Compiler2: 326 bytes object code size  0.1/0.1/[0.0]

