Circuit: * C:\Users\mitch\projects\Death-Clock\clock_pcb\sim\lvl_shifter.asc

Warning: Multiple definitions of model "aons66402" Type: Vdmos1
Limiting rise time of source v3 to 0.000125
Limiting fall time of source v3 to 0.000125
Limiting rise time of source v4 to 0.000125
Limiting fall time of source v4 to 0.000125
WARNING: Node NC_02 is floating.
WARNING: Node NC_01 is floating.
WARNING: Node NC_05 is floating.

WARNING: Less than two connections to node NC_04.  This node is used by R3.
WARNING: Less than two connections to node NC_05.  This node is used by R3.
WARNING: Less than two connections to node 5V_PULSE.  This node is used by V3.
Instance "m:m1:2": Length shorter than recommended for a level 3 MOSFET.
Direct Newton iteration for .op point succeeded.

Date: Sun Aug 14 23:13:42 2022
Total elapsed time: 0.139 seconds.

tnom = 27
temp = 27
method = modified trap
totiter = 5859
traniter = 5845
tranpoints = 2096
accept = 1779
rejected = 317
matrix size = 21
fillins = 0
solver = Normal
Matrix Compiler1: 1.32 KB object code size  0.2/0.2/[0.1]
Matrix Compiler2: off  [0.1]/0.2/0.2

