Circuit: * C:\projects\Death-Clock\clock_pcb\sim\lvl_shifter.asc

Limiting rise time of source v4 to 0.000125
Limiting fall time of source v4 to 0.000125
Limiting rise time of source v3 to 0.000125
Limiting fall time of source v3 to 0.000125
WARNING: Node NC_02 is floating.
WARNING: Node NC_01 is floating.
WARNING: Node NC_05 is floating.

WARNING: Less than two connections to node nc_04.  This node is used by r3.
WARNING: Less than two connections to node nc_05.  This node is used by r3.
WARNING: Less than two connections to node 5v_pulse.  This node is used by v3.
Instance "m:m1:2": Length shorter than recommended for a level 3 MOSFET.
Direct Newton iteration for .op point succeeded.

Date: Fri Apr 14 15:03:47 2023
Total elapsed time: 0.098 seconds.

tnom = 27
temp = 27
method = modified trap
totiter = 4739
traniter = 4725
tranpoints = 2058
accept = 1761
rejected = 297
matrix size = 20
fillins = 0
solver = Normal
Avg thread counts: 1.1/1.3/1.3/1.1
Matrix Compiler1: 1.29 KB object code size  0.6/0.6/[0.2]
Matrix Compiler2: 1.49 KB object code size  0.3/0.6/[0.2]

