Circuit: * C:\Users\mitch\projects\Death-Clock\clock_pcb\sim\usb_pwr_sel.asc

Warning: Multiple definitions of model "aons66402" Type: Vdmos1
